   44
   -551.5704996
C     7.5539000     2.7049720    -3.0676630    -0.0054520     0.0338652     0.0006826
C     7.9129790     3.6891110    -1.9757440    -0.0041283    -0.0313041     0.0030965
C     7.9011930     3.1290210    -0.5521110     0.0033073     0.0126252    -0.0052186
C     8.8636530     1.9104860    -0.3592840    -0.0004559    -0.0304431     0.0025393
C     9.4373740     1.7486230     1.0487580     0.0015711     0.0157772    -0.0117230
C     8.5496690     0.9580720     2.0609580    -0.0173525     0.0004116     0.0170410
C     9.2250730     0.8498190     3.4296340     0.0155840    -0.0160928    -0.0130012
C     8.3666680     0.1720400     4.5337610    -0.0019454     0.0099177     0.0184069
C     7.2270840     1.0309010     5.1373830    -0.0055558     0.0010996    -0.0012903
C     7.2678830     1.1029460     6.6752390     0.0000125     0.0026876     0.0010162
C     6.0470770     1.8334740     7.2828030     0.0062906    -0.0124971     0.0036455
C     6.3527020     2.8784270     8.3942450    -0.0209578     0.0239050     0.0037866
C     7.3176550     3.9998240     7.9847480     0.0112727    -0.0032699    -0.0106063
C     7.6634290     4.9411480     9.1397360    -0.0110466    -0.0127337     0.0032248
H     6.5901880     2.1896300    -2.8396730    -0.0020122    -0.0086839     0.0032282
H     8.2703960     1.8377020    -3.1207900     0.0033213    -0.0118728    -0.0016131
H     7.5192340     3.1006900    -4.0924510     0.0023601    -0.0064325    -0.0018321
H     7.2045830     4.5481500    -2.0340450     0.0019688     0.0060002    -0.0029654
H     8.8816810     4.2402840    -2.1706060     0.0061898     0.0159447    -0.0003717
H     6.8628470     2.8377140    -0.2884960    -0.0018210    -0.0002651     0.0005257
H     8.1695690     3.9245670     0.1619500    -0.0019099    -0.0014314     0.0008337
H     9.7213650     2.1640380    -1.0084850    -0.0003858     0.0082599     0.0032426
H     8.3657410     1.0072370    -0.7340960    -0.0042557     0.0050968    -0.0005533
H     9.7397470     2.7116310     1.4963500     0.0042400    -0.0041178     0.0034714
H    10.3907550     1.1930030     0.9658220     0.0003641     0.0010843     0.0000036
H     8.4935630    -0.0667030     1.6463510     0.0088106    -0.0002133    -0.0005895
H     7.5380080     1.3985350     2.0689110     0.0002340     0.0017609    -0.0063455
H     9.4371140     1.8806640     3.7833280    -0.0045442     0.0015414     0.0004345
H    10.1939090     0.3430000     3.3220190    -0.0012339     0.0022422     0.0006775
H     9.0540390    -0.2552060     5.2836820     0.0028706    -0.0055625    -0.0056807
H     7.9115910    -0.7171370     4.0550560    -0.0003780     0.0014202    -0.0025630
H     6.2528170     0.5945200     4.8610120     0.0006079     0.0000603     0.0010853
H     7.2269010     2.0372720     4.6814660    -0.0019076    -0.0019070    -0.0025079
H     8.2359900     1.5328100     7.0296810     0.0074774     0.0032737     0.0035704
H     7.2392900     0.0481100     6.9975650    -0.0045412    -0.0007172    -0.0058128
H     5.3314030     1.0963650     7.6824340    -0.0008458     0.0008369    -0.0018768
H     5.4901530     2.3170880     6.4556640    -0.0011249    -0.0030974    -0.0011700
H     6.8832530     2.2779760     9.1697150     0.0064356    -0.0061067    -0.0045505
H     5.4249130     3.2770680     8.8337180    -0.0001834    -0.0006241     0.0008534
H     6.8414370     4.5990400     7.2071360     0.0021063    -0.0038429     0.0099295
H     8.2555150     3.5983420     7.5737710     0.0007264     0.0020336     0.0019160
H     8.2651960     5.7872210     8.7519360     0.0004805     0.0012448     0.0000434
H     8.3115560     4.4704630     9.8981650     0.0053007     0.0029114    -0.0027628
H     6.7917250     5.4226120     9.6220040     0.0005054     0.0072148    -0.0002200
